Simulacoes/57/06 - EE/ieee57_18_1800_EE.txt
================================================================================= 
=== UFF - Doutorado em Computação - Aplicaçoes em Sistemas de Potencia        === 
=== ESTIMADOR DE ESTADO MÍNIMOS QUADRADOS PONDERADOS INCLUINDO MEDIDAS DE PMU === 
=== Desenvolvido por: Rui Menezes de Moraes - 2009                            === 
================================================================================= 
Arquivo de medidores:          F:\Documents\Uff\Artigos\SimSEP\VERSAO WELDAN V2\Codigos\Med\ieee57_18_1800.med
Arquivo do sistema:            F:\Documents\Uff\Artigos\SimSEP\VERSAO WELDAN V2\Codigos\Carga\ieee57_18_1800.txt
Tolerância entre iteraçoes:     1.00e-04
Limite de iteraçoes:           100

--- DADOS DA REDE --------------------------------------------------------------- 
Data do caso:                  08/25/93
Origem:                        UW ARCHIVE          
MVA base:                      100
Ano:                           1961
Estação:                       W
Identificação:                 IEEE 57 Bus Test Case
Número de barras:              57 
Número de ramos:               80 
Referência na barra:           1

--- TELEMEDIDAS ------------------------------------------------------------------
    Tipo 1 = Fluxo de potencia ativa        Tipo  6 = Módulo da tensão            
    Tipo 2 = Injeção de potencia ativa      Tipo  7 = Corrente de ramo (real)     
    Tipo 3 = Ângulo de fase da tensão       Tipo  8 = Corrente de ramo (imag)     
    Tipo 4 = Fluxo de potencia reativa      Tipo  9 = Injeção de corrente (real)  
    Tipo 5 = Injeção de potencia reativa    Tipo 10 = Injeção de corrente (imag)  
----------------------------------------------------------------------------------
   N    D    P TP  PN ST   Exa   FS       DP      V_Ref      V_Med          E(%) 
----------------------------------------------------------------------------------
   1    0    1  6   0  0 0.015 01.1  0.00520   +1.04000   +1.05427     +1.372115 
   2    0    2  6   0  0 0.015 01.1  0.00505   +1.01000   +1.00793     -0.204950 
   3    0    3  6   0  0 0.015 01.1  0.00501   +1.00279   +1.01193     +0.911457 
   4    0    4  6   0  0 0.015 01.1  0.00496   +0.99184   +1.00072     +0.895306 
   5    0    5  6   0  0 0.015 01.1  0.00490   +0.97909   +0.99363     +1.485052 
   6    0    6  6   0  0 0.015 01.1  0.00490   +0.98000   +0.97153     -0.864286 
   7    0    7  6   0  0 0.015 01.1  0.00491   +0.98213   +0.97709     -0.513170 
   8    0    8  6   0  0 0.015 01.1  0.00502   +1.00500   +1.01291     +0.787065 
   9    0    9  6   0  0 0.015 01.1  0.00490   +0.98000   +0.98755     +0.770408 
  10    0   10  6   0  0 0.015 01.1  0.00491   +0.98282   +0.99642     +1.383773 
  11    0   11  6   0  0 0.015 01.1  0.00486   +0.97234   +0.97438     +0.209803 
  12    0   12  6   0  0 0.015 01.1  0.00507   +1.01500   +1.01830     +0.325123 
  13    0   13  6   0  0 0.015 01.1  0.00489   +0.97818   +0.97422     -0.404833 
  14    0   14  6   0  0 0.015 01.1  0.00485   +0.97036   +0.96581     -0.468898 
  15    0   15  6   0  0 0.015 01.1  0.00496   +0.99204   +0.99502     +0.300391 
  16    0   16  6   0  0 0.015 01.1  0.00508   +1.01601   +1.01679     +0.076771 
  17    0   17  6   0  0 0.015 01.1  0.00510   +1.02009   +1.01963     -0.045094 
  18    0   18  6   0  0 0.015 01.1  0.00504   +1.00775   +1.01245     +0.466386 
  19    0   19  6   0  0 0.015 01.1  0.00485   +0.96921   +0.95578     -1.385665 
  20    0   20  6   0  0 0.015 01.1  0.00480   +0.95956   +0.95064     -0.929593 
  21    0   21  6   0  0 0.015 01.1  0.00501   +1.00207   +1.01496     +1.286337 
  22    0   22  6   0  0 0.015 01.1  0.00501   +1.00283   +1.00533     +0.249294 
  23    0   23  6   0  0 0.015 01.1  0.00500   +1.00101   +0.98646     -1.453532 
  24    0   24  6   0  0 0.015 01.1  0.00494   +0.98730   +0.98119     -0.618860 
  25    0   25  6   0  0 0.015 01.1  0.00481   +0.96199   +0.94887     -1.363840 
  26    0   26  6   0  0 0.015 01.1  0.00475   +0.94937   +0.95776     +0.883744 
  27    0   27  6   0  0 0.015 01.1  0.00487   +0.97319   +0.97936     +0.633997 
  28    0   28  6   0  0 0.015 01.1  0.00495   +0.98932   +0.99040     +0.109166 
  29    0   29  6   0  0 0.015 01.1  0.00502   +1.00362   +1.00623     +0.260059 
  30    0   30  6   0  0 0.015 01.1  0.00470   +0.94019   +0.93204     -0.866846 
  31    0   31  6   0  0 0.015 01.1  0.00456   +0.91165   +0.90930     -0.257774 
  32    0   32  6   0  0 0.015 01.1  0.00465   +0.93025   +0.93070     +0.048374 
  33    0   33  6   0  0 0.015 01.1  0.00464   +0.92766   +0.93708     +1.015458 
  34    0   34  6   0  0 0.015 01.1  0.00473   +0.94509   +0.94963     +0.480378 
  35    0   35  6   0  0 0.015 01.1  0.00477   +0.95351   +0.95297     -0.056633 
  36    0   36  6   0  0 0.015 01.1  0.00482   +0.96476   +0.97497     +1.058294 
  37    0   37  6   0  0 0.015 01.1  0.00487   +0.97506   +0.97452     -0.055381 
  38    0   38  6   0  0 0.015 01.1  0.00503   +1.00658   +0.99970     -0.683503 
  39    0   39  6   0  0 0.015 01.1  0.00486   +0.97281   +0.97955     +0.692838 
  40    0   40  6   0  0 0.015 01.1  0.00481   +0.96160   +0.97514     +1.408070 
  41    0   41  6   0  0 0.015 01.1  0.00495   +0.98959   +0.98590     -0.372882 
  42    0   42  6   0  0 0.015 01.1  0.00478   +0.95525   +0.94776     -0.784088 
  43    0   43  6   0  0 0.015 01.1  0.00503   +1.00631   +0.99854     -0.772128 
  44    0   44  6   0  0 0.015 01.1  0.00506   +1.01245   +0.99784     -1.443034 
  45    0   45  6   0  0 0.015 01.1  0.00518   +1.03678   +1.05179     +1.447752 
  46    0   46  6   0  0 0.015 01.1  0.00529   +1.05833   +1.06794     +0.908034 
  47    0   47  6   0  0 0.015 01.1  0.00515   +1.02909   +1.03105     +0.190460 
  48    0   48  6   0  0 0.015 01.1  0.00511   +1.02258   +1.01917     -0.333470 
  49    0   49  6   0  0 0.015 01.1  0.00516   +1.03252   +1.03725     +0.458103 
  50    0   50  6   0  0 0.015 01.1  0.00509   +1.01758   +1.03265     +1.480965 
  51    0   51  6   0  0 0.015 01.1  0.00525   +1.04931   +1.05604     +0.641374 
  52    0   52  6   0  0 0.015 01.1  0.00485   +0.97031   +0.95874     -1.192402 
  53    0   53  6   0  0 0.015 01.1  0.00480   +0.95961   +0.95809     -0.158398 
  54    0   54  6   0  0 0.015 01.1  0.00495   +0.99005   +0.99578     +0.578759 
  55    0   55  6   0  0 0.015 01.1  0.00515   +1.03089   +1.02572     -0.501508 
  56    0   56  6   0  0 0.015 01.1  0.00478   +0.95646   +0.96856     +1.265082 
  57    0   57  6   0  0 0.015 01.1  0.00476   +0.95210   +0.95589     +0.398067 
  58    0    1  2   0  0 0.020 01.0  0.00821   +0.97083   +0.99210     +2.190909 
  59    0    2  2   0  0 0.020 01.0  0.00195   -0.03300   -0.03387     +2.636364 
  60    0    3  2   0  0 0.020 01.0  0.01740   +2.35000   +2.32917     -0.886383 
  61    0    4  2   0  0 0.020 01.0  0.00173   +0.00000   +0.00405     +0.000000 
  62    0    5  2   0  0 0.020 01.0  0.00269   -0.14400   -0.15180     +5.416667 
  63    0    6  2   0  0 0.020 01.0  0.00729   -0.83300   -0.84839     +1.847539 
  64    0    7  2   0  0 0.020 01.0  0.00173   +0.00000   +0.00478     +0.000000 
  65    0    8  2   0  0 0.020 01.0  0.01063   +1.33500   +1.34868     +1.024719 
  66    0    9  2   0  0 0.020 01.0  0.00907   -1.10100   -1.11154     +0.957312 
  67    0   10  2   0  0 0.020 01.0  0.00232   -0.08800   -0.08343     -5.193182 
  68    0   11  2   0  0 0.020 01.0  0.00173   +0.00000   +0.00320     +0.000000 
  69    0   12  2   0  0 0.020 01.0  0.01717   +2.31500   +2.35715     +1.820734 
  70    0   13  2   0  0 0.020 01.0  0.00307   -0.20000   -0.19737     -1.315000 
  71    0   14  2   0  0 0.020 01.0  0.00251   -0.11700   -0.11506     -1.658120 
  72    0   15  2   0  0 0.020 01.0  0.00336   -0.24400   -0.25169     +3.151639 
  73    0   16  2   0  0 0.020 01.0  0.00491   -0.47700   -0.46465     -2.589099 
  74    0   17  2   0  0 0.020 01.0  0.00484   -0.46600   -0.46240     -0.772532 
  75    0   18  2   0  0 0.020 01.0  0.00375   -0.30200   -0.30745     +1.804636 
  76    0   19  2   0  0 0.020 01.0  0.00198   -0.03700   -0.03164    -14.486486 
  77    0   20  2   0  0 0.020 01.0  0.00191   -0.02600   -0.03119    +19.961538 
  78    0   21  2   0  0 0.020 01.0  0.00173   -0.00000   -0.00498     +0.000000 
  79    0   22  2   0  0 0.020 01.0  0.00173   +0.00000   -0.00428     +0.000000 
  80    0   23  2   0  0 0.020 01.0  0.00220   -0.07000   -0.06976     -0.342857 
  81    0   24  2   0  0 0.020 01.0  0.00173   +0.00000   +0.00394     +0.000000 
  82    0   25  2   0  0 0.020 01.0  0.00220   -0.07000   -0.07129     +1.842857 
  83    0   26  2   0  0 0.020 01.0  0.00173   -0.00000   +0.00064     +0.000000 
  84    0   27  2   0  0 0.020 01.0  0.00242   -0.10300   -0.10157     -1.388350 
  85    0   28  2   0  0 0.020 01.0  0.00207   -0.05100   -0.05629    +10.372549 
  86    0   29  2   0  0 0.020 01.0  0.00299   -0.18900   -0.19095     +1.031746 
  87    0   30  2   0  0 0.020 01.0  0.00200   -0.04000   -0.04174     +4.350000 
  88    0   31  2   0  0 0.020 01.0  0.00216   -0.06400   -0.06731     +5.171875 
  89    0   32  2   0  0 0.020 01.0  0.00185   -0.01800   -0.02236    +24.222222 
  90    0   33  2   0  0 0.020 01.0  0.00201   -0.04200   -0.04668    +11.142857 
  91    0   34  2   0  0 0.020 01.0  0.00173   +0.00000   -0.00242     +0.000000 
  92    0   35  2   0  0 0.020 01.0  0.00218   -0.06700   -0.07006     +4.567164 
  93    0   36  2   0  0 0.020 01.0  0.00173   +0.00000   +0.00454     +0.000000 
  94    0   37  2   0  0 0.020 01.0  0.00173   +0.00000   -0.00326     +0.000000 
  95    0   38  2   0  0 0.020 01.0  0.00277   -0.15500   -0.15488     -0.077419 
  96    0   39  2   0  0 0.020 01.0  0.00173   +0.00000   -0.00367     +0.000000 
  97    0   40  2   0  0 0.020 01.0  0.00173   +0.00000   +0.00438     +0.000000 
  98    0   41  2   0  0 0.020 01.0  0.00220   -0.07000   -0.06433     -8.100000 
  99    0   42  2   0  0 0.020 01.0  0.00226   -0.07900   -0.08393     +6.240506 
 100    0   43  2   0  0 0.020 01.0  0.00188   -0.02200   -0.01781    -19.045455 
 101    0   44  2   0  0 0.020 01.0  0.00262   -0.13300   -0.14067     +5.766917 
 102    0   45  2   0  0 0.020 01.0  0.00173   -0.00000   +0.00231     +0.000000 
 103    0   46  2   0  0 0.020 01.0  0.00173   -0.00000   +0.00394     +0.000000 
 104    0   47  2   0  0 0.020 01.0  0.00393   -0.33000   -0.33266     +0.806061 
 105    0   48  2   0  0 0.020 01.0  0.00173   +0.00000   -0.00264     +0.000000 
 106    0   49  2   0  0 0.020 01.0  0.00307   -0.20000   -0.20714     +3.570000 
 107    0   50  2   0  0 0.020 01.0  0.00329   -0.23300   -0.22616     -2.935622 
 108    0   51  2   0  0 0.020 01.0  0.00307   -0.20000   -0.19706     -1.470000 
 109    0   52  2   0  0 0.020 01.0  0.00209   -0.05400   -0.05049     -6.500000 
 110    0   53  2   0  0 0.020 01.0  0.00321   -0.22200   -0.22473     +1.229730 
 111    0   54  2   0  0 0.020 01.0  0.00204   -0.04600   -0.04987     +8.413043 
 112    0   55  2   0  0 0.020 01.0  0.00223   -0.07500   -0.08156     +8.746667 
 113    0   56  2   0  0 0.020 01.0  0.00229   -0.08400   -0.08970     +6.785714 
 114    0   57  2   0  0 0.020 01.0  0.00223   -0.07400   -0.07628     +3.081081 
 115    0    1  5   0  0 0.020 01.0  0.01257   +1.62535   +1.61033     -0.924109 
 116    0    2  5   0  0 0.020 01.0  0.00898   -1.08681   -1.08646     -0.032204 
 117    0    3  5   0  0 0.020 01.0  0.00395   -0.33300   -0.33568     +0.804805 
 118    0    4  5   0  0 0.020 01.0  0.00173   -0.00000   +0.00455     +0.000000 
 119    0    5  5   0  0 0.020 01.0  0.00203   -0.04400   -0.04814     +9.409091 
 120    0    6  5   0  0 0.020 01.0  0.00178   +0.00744   +0.01043    +40.188172 
 121    0    7  5   0  0 0.020 01.0  0.00173   +0.00000   -0.00335     +0.000000 
 122    0    8  5   0  0 0.020 01.0  0.00614   +0.66155   +0.67280     +1.700552 
 123    0    9  5   0  0 0.020 01.0  0.00303   -0.19411   -0.19298     -0.582144 
 124    0   10  5   0  0 0.020 01.0  0.00197   -0.03500   -0.03535     +1.000000 
 125    0   11  5   0  0 0.020 01.0  0.00173   -0.00000   -0.00146     +0.000000 
 126    0   12  5   0  0 0.020 01.0  0.00389   +0.32379   +0.32080     -0.923438 
 127    0   13  5   0  0 0.020 01.0  0.00191   -0.02600   -0.02734     +5.153846 
 128    0   14  5   0  0 0.020 01.0  0.00213   -0.05900   -0.06211     +5.271186 
 129    0   15  5   0  0 0.020 01.0  0.00211   -0.05600   -0.05003    -10.660714 
 130    0   16  5   0  0 0.020 01.0  0.00195   -0.03300   -0.03112     -5.696970 
 131    0   17  5   0  0 0.020 01.0  0.00233   -0.08900   -0.08893     -0.078652 
 132    0   18  5   0  0 0.020 01.0  0.00246   -0.10900   -0.11346     +4.091743 
 133    0   19  5   0  0 0.020 01.0  0.00178   -0.00700   -0.01123    +60.428571 
 134    0   20  5   0  0 0.020 01.0  0.00181   -0.01100   -0.00679    -38.272727 
 135    0   21  5   0  0 0.020 01.0  0.00173   +0.00000   -0.00143     +0.000000 
 136    0   22  5   0  0 0.020 01.0  0.00173   +0.00000   -0.00048     +0.000000 
 137    0   23  5   0  0 0.020 01.0  0.00189   -0.02300   -0.02793    +21.434783 
 138    0   24  5   0  0 0.020 01.0  0.00173   -0.00000   +0.00365     +0.000000 
 139    0   25  5   0  0 0.020 01.0  0.00197   -0.03600   -0.03861     +7.250000 
 140    0   26  5   0  0 0.020 01.0  0.00173   +0.00000   +0.00428     +0.000000 
 141    0   27  5   0  0 0.020 01.0  0.00177   -0.00600   -0.01068    +78.000000 
 142    0   28  5   0  0 0.020 01.0  0.00191   -0.02600   -0.02467     -5.115385 
 143    0   29  5   0  0 0.020 01.0  0.00193   -0.02900   -0.02826     -2.551724 
 144    0   30  5   0  0 0.020 01.0  0.00187   -0.02000   -0.01812     -9.400000 
 145    0   31  5   0  0 0.020 01.0  0.00195   -0.03200   -0.03392     +6.000000 
 146    0   32  5   0  0 0.020 01.0  0.00179   -0.00900   -0.01397    +55.222222 
 147    0   33  5   0  0 0.020 01.0  0.00187   -0.02100   -0.02341    +11.476190 
 148    0   34  5   0  0 0.020 01.0  0.00173   -0.00000   +0.00448     +0.000000 
 149    0   35  5   0  0 0.020 01.0  0.00195   -0.03300   -0.02949    -10.636364 
 150    0   36  5   0  0 0.020 01.0  0.00173   -0.00000   -0.00176     +0.000000 
 151    0   37  5   0  0 0.020 01.0  0.00173   +0.00000   +0.00247     +0.000000 
 152    0   38  5   0  0 0.020 01.0  0.00225   -0.07800   -0.07709     -1.166667 
 153    0   39  5   0  0 0.020 01.0  0.00173   -0.00000   -0.00503     +0.000000 
 154    0   40  5   0  0 0.020 01.0  0.00173   -0.00000   -0.00077     +0.000000 
 155    0   41  5   0  0 0.020 01.0  0.00195   -0.03300   -0.03852    +16.727273 
 156    0   42  5   0  0 0.020 01.0  0.00206   -0.04900   -0.04549     -7.163265 
 157    0   43  5   0  0 0.020 01.0  0.00181   -0.01100   -0.00579    -47.363636 
 158    0   44  5   0  0 0.020 01.0  0.00187   -0.02000   -0.01787    -10.650000 
 159    0   45  5   0  0 0.020 01.0  0.00173   +0.00000   +0.00291     +0.000000 
 160    0   46  5   0  0 0.020 01.0  0.00173   +0.00000   +0.00102     +0.000000 
 161    0   47  5   0  0 0.020 01.0  0.00259   -0.12900   -0.13235     +2.596899 
 162    0   48  5   0  0 0.020 01.0  0.00173   -0.00000   +0.00256     +0.000000 
 163    0   49  5   0  0 0.020 01.0  0.00236   -0.09400   -0.09125     -2.925532 
 164    0   50  5   0  0 0.020 01.0  0.00251   -0.11700   -0.11787     +0.743590 
 165    0   51  5   0  0 0.020 01.0  0.00213   -0.05900   -0.06003     +1.745763 
 166    0   52  5   0  0 0.020 01.0  0.00189   -0.02400   -0.02797    +16.541667 
 167    0   53  5   0  0 0.020 01.0  0.00247   -0.11100   -0.11040     -0.540541 
 168    0   54  5   0  0 0.020 01.0  0.00184   -0.01600   -0.01935    +20.937500 
 169    0   55  5   0  0 0.020 01.0  0.00199   -0.03800   -0.03503     -7.815789 
 170    0   56  5   0  0 0.020 01.0  0.00189   -0.02400   -0.02155    -10.208333 
 171    0   57  5   0  0 0.020 01.0  0.00188   -0.02200   -0.01969    -10.500000 
 172    1    2  1   0  0 0.020 01.0  0.00204   -0.04581   -0.04292     -6.308666 
 173    2    3  1   0  0 0.020 01.0  0.00232   -0.08862   -0.08644     -2.459941 
 174    3    4  1   0  0 0.020 01.0  0.00995   +1.23283   +1.25618     +1.894016 
 175    4    5  1   0  0 0.020 01.0  0.00426   +0.37836   +0.37813     -0.060789 
 176    4    6  1   0  0 0.020 01.0  0.00492   +0.47875   +0.47407     -0.977546 
 177    6    7  1   0  0 0.020 01.0  0.00203   +0.04530   +0.05095    +12.472406 
 178    6    8  1   0  0 0.020 01.0  0.00298   -0.18673   -0.19343     +3.588068 
 179    8    9  1   0  0 0.020 01.0  0.00588   +0.62137   +0.61109     -1.654409 
 180    9   10  1   0  0 0.020 01.0  0.00251   -0.11588   -0.12107     +4.478771 
 181    9   11  1   0  0 0.020 01.0  0.00234   -0.09151   -0.08718     -4.731723 
 182    9   12  1   0  0 0.020 01.0  0.00381   -0.31126   -0.32114     +3.174195 
 183    9   13  1   0  0 0.020 01.0  0.00313   -0.21008   -0.21025     +0.080922 
 184   13   14  1   0  0 0.020 01.0  0.00245   +0.10809   +0.10954     +1.341475 
 185   13   15  1   0  0 0.020 01.0  0.00370   -0.29488   -0.29787     +1.013972 
 186    1   15  1   0  0 0.020 01.0  0.00498   +0.48751   +0.49315     +1.156899 
 187    1   16  1   0  0 0.020 01.0  0.00297   +0.18603   +0.19239     +3.418803 
 188    1   17  1   0  0 0.020 01.0  0.00402   +0.34310   +0.35277     +2.818420 
 189    3   15  1   0  0 0.020 01.0  0.00859   +1.02792   +1.05118     +2.262822 
 190    4   18  1   0  0 0.020 01.0  0.00278   +0.15734   +0.16402     +4.245583 
 191    4   18  1   0  0 0.020 01.0  0.00308   +0.20142   +0.19231     -4.522887 
 192    5    6  1   0  0 0.020 01.0  0.00323   +0.22494   +0.21605     -3.952165 
 193    7    8  1   0  0 0.020 01.0  0.00521   -0.52078   -0.50920     -2.223588 
 194   10   12  1   0  0 0.020 01.0  0.00555   -0.57301   -0.57486     +0.322856 
 195   11   13  1   0  0 0.020 01.0  0.00403   -0.34510   -0.34650     +0.405680 
 196   12   13  1   0  0 0.020 01.0  0.00836   +0.99352   +0.98502     -0.855544 
 197   12   16  1   0  0 0.020 01.0  0.00369   +0.29432   +0.30407     +3.312721 
 198   12   17  1   0  0 0.020 01.0  0.00258   +0.12655   +0.12984     +2.599763 
 199   14   15  1   0  0 0.020 01.0  0.00541   -0.55093   -0.53669     -2.584720 
...
Número de medidores SCADA:     491
Número de PMUs:                0
Número de medidas das PMUs:    0
----------------------------------------------------------------------------------

Não há medidas de ângulo.
Não há medidores desabilitados.
============================== Estado Estimado ===================================
                 Barra     Mod(pu)    Ang(graus)              
----------------------------------------------------------------------------------
                    1            1.0411              0.00        
                    2            1.0110              0.58        
                    3            1.0038              1.19        
                    4            0.9928             -1.44        
                    5            0.9799             -4.71        
                    6            0.9811             -5.77        
                    7            0.9833             -6.06        
                    8            1.0065             -4.08        
                    9            0.9813             -5.67        
                   10            0.9842             -4.46        
                   11            0.9736             -5.01        
                   12            1.0162             -0.48        
                   13            0.9794             -3.44        
                   14            0.9715             -3.61        
                   15            0.9932             -2.03        
                   16            1.0172             -1.90        
                   17            1.0214             -1.85        
                   18            1.0059             -6.09        
                   19            0.9683             -7.78        
                   20            0.9586             -8.22        
                   21            1.0032             -7.98        
                   22            1.0043             -7.95        
                   23            1.0024             -8.08        
                   24            0.9884             -9.62        
                   25            0.9601            -15.04        
                   26            0.9504             -9.47        
                   27            0.9737             -9.25        
                   28            0.9900             -8.61        
                   29            1.0046             -8.12        
                   30            0.9386            -15.61        
                   31            0.9095            -16.15        
                   32            0.9287            -14.81        
                   33            0.9261            -14.85        
                   34            0.9471             -9.38        
                   35            0.9557             -9.09        
                   36            0.9669             -8.77        
                   37            0.9772             -8.54        
                   38            1.0081             -7.67        
                   39            0.9749             -8.59        
                   40            0.9638             -8.80        
                   41            0.9906             -9.28        
                   42            0.9571            -10.90        
                   43            1.0081             -6.28        
                   44            1.0141             -6.82        
                   45            1.0383             -4.21        
                   46            1.0597             -5.60        
                   47            1.0304             -7.22        
                   48            1.0240             -7.35        
                   49            1.0340             -7.33        
                   50            1.0189             -7.45        
                   51            1.0508             -5.80        
                   52            0.9719             -9.47        
                   53            0.9614            -10.02        
                   54            0.9914             -8.83        
                   55            1.0323             -7.28        
                   56            0.9589            -11.51        
                   57            0.9550            -12.08        
----------------------------------------------------------------------------------
Convergiu em:    3 iteraçoes. 
----------------------------------------------------------------------------------
--- RESIDUOS NORMALIZADOS --------------------------------------------------------
   N    D    P  TP      Real     Medido   Estimado      Med-Est        rn 
----------------------------------------------------------------------------------
 350   18    4  1    -0.1573    -0.1606    -0.1925  +3.1811e-02      0.644 
 190    4   18  1    +0.1573    +0.1640    +0.1925  -2.8441e-02      0.576 
  75    0   18  2    -0.3020    -0.3075    -0.2880  -1.9427e-02      0.408 
  61    0    4  2    +0.0000    +0.0040    -0.0022  +6.2437e-03      0.362 
  73    0   16  2    -0.4770    -0.4647    -0.4840  +1.9323e-02      0.345 
 430   18    4  4    -0.0201    -0.0256    -0.0139  -1.1669e-02      0.288 
  69    0   12  2    +2.3150    +2.3571    +2.3267  +3.0469e-02      0.283 
 174    3    4  1    +1.2328    +1.2562    +1.2318  +2.4383e-02      0.269 
 252    1    2  4    +1.0600    +1.0860    +1.0648  +2.1286e-02      0.261 
  68    0   11  2    +0.0000    +0.0032    -0.0026  +5.7849e-03      0.254 
 189    3   15  1    +1.0279    +1.0512    +1.0302  +2.1013e-02      0.244 
 334    4    3  1    -1.2159    -1.2369    -1.2149  -2.1954e-02      0.243 
 335    5    4  1    -0.3689    -0.3610    -0.3757  +1.4716e-02      0.237 
  44    0   44  6    +1.0125    +0.9978    +1.0141  -1.6220e-02      0.230 
  23    0   23  6    +1.0010    +0.9865    +1.0024  -1.5964e-02      0.228 
 342   12    9  1    +0.3179    +0.3064    +0.3202  -1.3831e-02      0.226 
 201   19   20  1    +0.0181    +0.0128    +0.0215  -8.6501e-03      0.223 
 177    6    7  1    +0.0453    +0.0510    +0.0421  +8.8640e-03      0.223 
 270    4   18  4    +0.0339    +0.0389    +0.0297  +9.1945e-03      0.221 
 230   14   46  1    +0.5416    +0.5266    +0.5416  -1.5003e-02      0.221 
  67    0   10  2    -0.0880    -0.0834    -0.0895  +6.0590e-03      0.219 
 132    0   18  5    -0.1090    -0.1135    -0.1220  +8.5557e-03      0.218 
 394   50   49  1    -0.0683    -0.0744    -0.0661  -8.3224e-03      0.204 
   5    0    5  6    +0.9791    +0.9936    +0.9799  +1.3693e-02      0.197 
  79    0   22  2    +0.0000    -0.0043    +0.0008  -5.0449e-03      0.196 
 193    7    8  1    -0.5208    -0.5092    -0.5221  +1.2897e-02      0.194 
  50    0   50  6    +1.0176    +1.0327    +1.0189  +1.3716e-02      0.194 
 356   13   12  1    -0.9742    -0.9617    -0.9780  +1.6283e-02      0.194 
  52    0   52  6    +0.9703    +0.9587    +0.9719  -1.3125e-02      0.191 
 441   20   19  4    -0.0095    -0.0147    -0.0074  -7.3126e-03      0.190 
 212    7   29  1    +0.5660    +0.5540    +0.5665  -1.2559e-02      0.189 
  45    0   45  6    +1.0368    +1.0518    +1.0383  +1.3464e-02      0.189 
 351   18    4  1    -0.2014    -0.2021    -0.1925  -9.6894e-03      0.185 
  19    0   19  6    +0.9692    +0.9558    +0.9683  -1.2485e-02      0.185 
   1    0    1  6    +1.0400    +1.0543    +1.0411  +1.3172e-02      0.184 
 281   19   20  4    +0.0097    +0.0146    +0.0076  +6.9925e-03      0.182 
 390   46   14  1    -0.5416    -0.5540    -0.5416  -1.2317e-02      0.181 
 389   45   15  1    -0.3923    -0.4046    -0.3936  -1.0993e-02      0.180 
 199   14   15  1    -0.5509    -0.5367    -0.5492  +1.2537e-02      0.180 
 181    9   11  1    -0.0915    -0.0872    -0.0949  +7.6857e-03      0.178 
  10    0   10  6    +0.9828    +0.9964    +0.9842  +1.2207e-02      0.176 
 115    0    1  5    +1.6254    +1.6103    +1.6261  -1.5808e-02      0.175 
 253    2    3  4    +0.0757    +0.0817    +0.0745  +7.1393e-03      0.173 
  60    0    3  2    +2.3500    +2.3292    +2.3486  -1.9419e-02      0.171 
  33    0   33  6    +0.9277    +0.9371    +0.9261  +1.1022e-02      0.170 
 202   21   20  1    +0.0080    +0.0114    +0.0050  +6.4692e-03      0.169 
 354   12   10  1    +0.5827    +0.5955    +0.5836  +1.1911e-02      0.169 
  25    0   25  6    +0.9620    +0.9489    +0.9601  -1.1276e-02      0.169 
  21    0   21  6    +1.0021    +1.0150    +1.0032  +1.1765e-02      0.168 
 355   13   11  1    +0.3479    +0.3594    +0.3495  +9.8626e-03      0.168 
 179    8    9  1    +0.6214    +0.6111    +0.6219  -1.0823e-02      0.166 
 272    5    6  4    -0.1232    -0.1182    -0.1258  +7.6684e-03      0.166 
 435   13   11  4    -0.0321    -0.0267    -0.0332  +6.5249e-03      0.165 
  99    0   42  2    -0.0790    -0.0839    -0.0779  -6.0240e-03      0.165 
  40    0   40  6    +0.9616    +0.9751    +0.9638  +1.1325e-02      0.165 
 403   45   44  1    +0.3923    +0.3835    +0.3937  -1.0182e-02      0.163 
 358   17   12  1    -0.1258    -0.1182    -0.1258  +7.5674e-03      0.162 
 353    8    7  1    +0.5253    +0.5374    +0.5267  +1.0777e-02      0.162 
 380   37   36  1    +0.1978    +0.2044    +0.1967  +7.6834e-03      0.162 
 299   35   36  4    -0.0749    -0.0813    -0.0748  -6.4558e-03      0.161 
 284   22   23  4    +0.0106    +0.0069    +0.0126  -5.7201e-03      0.160 
 276   12   13  4    +0.3311    +0.3219    +0.3312  -9.2124e-03      0.160 
 321   54   55  4    -0.0516    -0.0463    -0.0529  +6.5896e-03      0.158 
 176    4    6  1    +0.4788    +0.4741    +0.4845  -1.0387e-02      0.154 
 392   48   47  1    -0.2030    -0.1951    -0.2024  +7.3455e-03      0.153 
 218   34   35  1    -0.0889    -0.0825    -0.0889  +6.3019e-03      0.151 
 188    1   17  1    +0.3431    +0.3528    +0.3442  +8.5813e-03      0.151 
 237   13   49  1    +0.4004    +0.3926    +0.4022  -9.6485e-03      0.151 
 204   22   23  1    +0.1683    +0.1746    +0.1677  +6.9220e-03      0.150 
 386   42   41  1    -0.0960    -0.0894    -0.0961  +6.7020e-03      0.149 
 239   52   53  1    +0.1082    +0.1009    +0.1073  -6.4470e-03      0.149 
 101    0   44  2    -0.1330    -0.1407    -0.1352  -5.4673e-03      0.148 
 196   12   13  1    +0.9935    +0.9850    +0.9974  -1.2413e-02      0.148 
 429   15    3  4    +0.1105    +0.1082    +0.1146  -6.4048e-03      0.146 
  77    0   20  2    -0.0260    -0.0312    -0.0263  -4.9257e-03      0.146 
  56    0   56  6    +0.9565    +0.9686    +0.9589  +9.6849e-03      0.143 
 128    0   14  5    -0.0590    -0.0621    -0.0662  +4.1038e-03      0.143 
 277   12   16  4    -0.0851    -0.0791    -0.0852  +6.0763e-03      0.142 
 469   45   15  4    -0.0126    -0.0148    -0.0095  -5.3325e-03      0.142 
 474   50   49  4    -0.0761    -0.0723    -0.0783  +6.0032e-03      0.142 
 310   14   46  4    +0.3006    +0.2910    +0.2990  -7.9278e-03      0.141 
 110    0   53  2    -0.2220    -0.2247    -0.2182  -6.5178e-03      0.141 
 330   38   48  4    -0.1800    -0.1721    -0.1789  +6.8357e-03      0.141 
 300   36   37  4    -0.1160    -0.1219    -0.1160  -5.9411e-03      0.139 
  42    0   42  6    +0.9553    +0.9478    +0.9571  -9.3304e-03      0.138 
   6    0    6  6    +0.9800    +0.9715    +0.9811  -9.5881e-03      0.138 
 348   17    1  1    -0.3402    -0.3335    -0.3413  +7.8245e-03      0.138 
 134    0   20  5    -0.0110    -0.0068    -0.0113  +4.5346e-03      0.137 
  97    0   40  2    +0.0000    +0.0044    -0.0001  +4.5193e-03      0.136 
  43    0   43  6    +1.0063    +0.9985    +1.0081  -9.5177e-03      0.135 
 236   10   51  1    +0.3686    +0.3568    +0.3647  -7.8460e-03      0.135 
 153    0   39  5    -0.0000    -0.0050    -0.0005  -4.5272e-03      0.135 
 407   57   39  1    -0.0427    -0.0368    -0.0427  +5.8859e-03      0.135 
...